$ MSC.Nastran input file created on October   28, 2025 at 22:08:43 by
$ Patran 2024.1
$ Direct Text Input for Nastran System Cell Section
$ Direct Text Input for File Management Section
$ Direct Text Input for Executive Control
$ Linear Static Analysis, Database
SOL 101
CEND
$ Direct Text Input for Global Case Control Data
ECHO = NONE
SUBCASE 1
$ Subcase name : LinearStatic
   SUBTITLE=LinearStatic
   SPC = 2
   LOAD = 2
   DISPLACEMENT(SORT1,REAL)=ALL
   SPCFORCES(SORT1,REAL)=ALL
   GPFORCE=ALL
   STRESS(SORT1,REAL,VONMISES,BILIN)=ALL
$ Direct Text Input for this Subcase
SUBCASE 2
$ Subcase name : 1G_DWN
   SUBTITLE=1G_DWN
   SPC = 2
   LOAD = 4
   DISPLACEMENT(SORT1,REAL)=ALL
   SPCFORCES(SORT1,REAL)=ALL
   GPFORCE=ALL
   STRESS(SORT1,REAL,VONMISES,BILIN)=ALL
$ Direct Text Input for this Subcase
BEGIN BULK
$ Direct Text Input for Bulk Data
HDF5OUT PRCISION 32     CMPRMTHD LZ4     LEVEL   5
PARAM   PRTMAXIM YES
$ Elements and Element Properties for region : Beam
PBEAML   1       1               BOX
         .7      .25     .01     .01
$ Pset: "Beam" will be imported as: "pbeaml.1"
CBEAM    1       1       1       2       0.      0.      1.
CBEAM    2       1       2       3       0.      0.      1.
CBEAM    3       1       3       4       0.      0.      1.
CBEAM    4       1       4       5       0.      0.      1.
CBEAM    5       1       5       6       0.      0.      1.
CBEAM    6       1       6       7       0.      0.      1.
CBEAM    7       1       7       8       0.      0.      1.
CBEAM    8       1       8       9       0.      0.      1.
CBEAM    9       1       9       10      0.      0.      1.
CBEAM    10      1       10      11      0.      0.      1.
CBEAM    11      1       11      12      0.      0.      1.
CBEAM    12      1       12      13      0.      0.      1.
CBEAM    13      1       13      14      0.      0.      1.
CBEAM    14      1       14      15      0.      0.      1.
CBEAM    15      1       15      16      0.      0.      1.
CBEAM    16      1       16      17      0.      0.      1.
CBEAM    17      1       17      18      0.      0.      1.
CBEAM    18      1       18      19      0.      0.      1.
CBEAM    19      1       19      20      0.      0.      1.
CBEAM    20      1       20      21      0.      0.      1.
$ Referenced Material Records
$ Material Record : Aluminum_6061T6
$ Description of Material : Date: 27-Oct-25           Time: 23:38:09
MAT1     1       6.9+10          .33     2700.
$ Nodes of the Entire Model
GRID     1               0.      0.      0.
GRID     2               .25     0.      0.
GRID     3               .5      0.      0.
GRID     4               .75     0.      0.
GRID     5               1.      0.      0.
GRID     6               1.25    0.      0.
GRID     7               1.5     0.      0.
GRID     8               1.75    0.      0.
GRID     9               2.      0.      0.
GRID     10              2.25    0.      0.
GRID     11              2.5     0.      0.
GRID     12              2.75    0.      0.
GRID     13              3.      0.      0.
GRID     14              3.25    0.      0.
GRID     15              3.5     0.      0.
GRID     16              3.75    0.      0.
GRID     17              4.      0.      0.
GRID     18              4.25    0.      0.
GRID     19             4.500001 0.      0.
GRID     20             4.750001 0.      0.
GRID     21              5.      0.      0.
$ Loads for Load Case : LinearStatic
SPCADD   2       3
LOAD     2       1.      1.      3
$ Displacement Constraints of Load Set : SPC
SPC1     3       123456  1
$ Loads for Load Case : 1G_DWN
LOAD     4       1.      1.      3       1.      5
$ Nodal Forces of Load Set : Tip_Mass
FORCE    3       21      0       1000.   0.      0.      -1.
$ Gravity Loading of Load Set : 1G_DWN
GRAV     5       0       1.      0.      0.      -1.
$ Referenced Coordinate Frames
ENDDATA c745c6cf
